FoamFile { format ascii; class dictionary; object combustionProperties; }

combustionModel FGM;

FGMCoeffs
{
    progressVariable PV;
}
